18
Properties=species:S:1:pos:R:3:forces:R:3 energy=-41772.02052925226 pbc="F F F"
Co       0.96940000       3.46980000       6.54820000      -0.52686572       0.13702639       0.06793848
S        4.03350000       2.64150000       5.40910000      -0.56772168       0.42999858      -0.08664454
C        2.40440000       2.13280000       6.03310000       2.41433583       6.98493392       4.76818460
C        1.00110000       4.09720000       4.84710000       0.19611117      -1.55011405       3.93777967
O        0.99820000       4.47730000       3.79190000      -0.04097408       1.46345383      -3.99813015
C       -0.35340000       4.61950000       6.99080000       3.17282237      -2.69777324      -0.97850455
O       -1.17350000       5.33880000       7.25240000      -3.09856685       2.69865086       0.99361904
C       -0.06240000       2.00080000       6.88990000       2.60856613       3.57705860      -0.83712729
O       -0.68370000       1.09030000       7.10050000      -2.41530755      -3.50499587       0.79714252
C        2.04870000       4.07100000       7.88310000      -2.35075661      -1.49590840      -3.35918063
O        2.69480000       4.42150000       8.72990000       2.47167940       1.38934234       3.24322489
F        3.77490000       4.19620000       5.43570000      -0.69060736       2.57124482       0.19168331
F        5.49110000       2.99550000       4.85600000       1.63340247       0.44123630      -0.68536653
F        4.64960000       2.74170000       6.85110000       0.83275317      -0.01951164       2.67621150
F        3.55230000       2.62670000       3.89500000      -0.98468846      -0.25091660      -1.93747303
F        4.48300000       1.13130000       5.29270000       0.23867043      -2.51001255       0.00863438
H        2.62850000       1.59330000       6.86110000       0.62442186      -1.79315068       2.68856704
H        2.14230000       1.60470000       5.33150000      -3.51727458      -5.87056260      -7.49055877
18
Properties=species:S:1:pos:R:3:forces:R:3 energy=-41773.369688002975 pbc="F F F"
Co       0.97213700       3.46540700       6.54319400      -0.39370231       0.07285458       0.07623579
S        4.03134700       2.67341000       5.42227500      -0.51167991       0.10004976      -0.06432947
C        2.39848400       2.11834300       6.03527400       0.61121904       1.80924383       1.07570414
C        1.02243300       4.07021200       4.83358100       0.04776478      -0.53130200       1.37844405
O        1.02354400       4.44791100       3.75474300      -0.02110814       0.49288308      -1.37610661
C       -0.33150600       4.63455700       6.98654100       1.14616687      -0.97350488      -0.35763996
O       -1.15714800       5.37782700       7.25595700      -1.05646452       0.94361833       0.35215348
C       -0.05845100       2.00284000       6.89166600       0.98307211       1.34950535      -0.31092343
O       -0.69723900       1.07860400       7.10791800      -0.85037325      -1.23727967       0.27853488
C        2.07852300       4.05056000       7.86124200      -0.86182269      -0.51829340      -1.18106924
O        2.75218400       4.40756100       8.71283800       0.86436947       0.48159152       1.10356744
F        3.72202200       4.25255800       5.47720400      -0.13055821       1.22022894       0.05513500
F        5.50386400       3.05922400       4.85724700       0.41695650       0.11923764      -0.15942502
F        4.63897700       2.75569000       6.90679300       0.52405216       0.03825488       1.19890966
F        3.51367700       2.65057100       3.89022500      -0.29475124      -0.02392658      -1.00512154
F        4.47618000       1.12885600       5.30246000       0.37464066      -1.18902634      -0.06590617
H        2.63170500       1.54906000       6.90264100       0.18245388      -0.62893158       0.77193054
H        2.07806700       1.52671200       5.25730100      -1.03023515      -1.52520355      -1.77009359
18
Properties=species:S:1:pos:R:3:forces:R:3 energy=-41773.585150478655 pbc="F F F"
Co       0.94899500       3.46559900       6.52769600       0.08111291       0.01108732      -0.00454628
S        4.05661300       2.69002900       5.44350900      -0.04507921      -0.23675846      -0.21100742
C        2.38776000       2.10496900       6.02122500      -0.00343515      -0.01034370       0.47708684
C        0.97831000       4.03526800       4.80654400      -0.05859545       0.08194749      -0.12176334
O        0.92916700       4.41121000       3.71317700       0.05529734      -0.07411113       0.15246226
C       -0.32856400       4.64825500       6.98605300      -0.08664762       0.05497806       0.03574471
O       -1.15375100       5.40351700       7.28275000       0.13517211      -0.10138030      -0.04955241
C       -0.05585300       2.00973400       6.90894100      -0.10572480      -0.08541514      -0.01403879
O       -0.69209700       1.06794000       7.13613200       0.08788448       0.10110730      -0.00586710
C        2.09157400       4.06020800       7.80314000       0.06654941       0.17970948       0.17935647
O        2.78422300       4.45994700       8.63979800      -0.11329150      -0.11171470      -0.14352321
F        3.78383600       4.30707900       5.58714300      -0.08751290      -0.01561020      -0.03108315
F        5.55521200       3.07985800       4.90748900      -0.13006600      -0.01981539       0.06327578
F        4.66697000       2.67328300       6.96986200      -0.03791832       0.06288363       0.08126204
F        3.54959000       2.74553700       3.87450400      -0.02353177       0.07760017       0.06088419
F        4.49115600       1.11038600       5.25459800       0.03097429      -0.09132317      -0.03571910
H        2.61420900       1.50058600       6.91303400       0.02165568       0.15261123      -0.29944607
H        1.99145300       1.47649400       5.22350300       0.21315650       0.02454751      -0.13352537
18
Properties=species:S:1:pos:R:3:forces:R:3 energy=-41773.59993388046 pbc="F F F"
Co       0.95719000       3.46581600       6.54432800      -0.04759200       0.00853925       0.00775758
S        4.03528700       2.68588300       5.42377000      -0.07191150      -0.01471705      -0.06739021
C        2.38907800       2.10147600       6.02904000      -0.04954737      -0.00706200       0.12100831
C        1.01471200       4.05576700       4.83184600       0.02582097       0.04311792      -0.15433140
O        1.02402100       4.42898700       3.73727600      -0.03056857      -0.03725133       0.11734279
C       -0.31765200       4.65051400       6.99480800      -0.03661138       0.04806940       0.02307180
O       -1.13559500       5.41623000       7.28155900       0.06066750      -0.05750741      -0.02133543
C       -0.06426500       2.01431500       6.89635400       0.00080229      -0.07829097       0.03478795
O       -0.69806000       1.07050100       7.11931100       0.03433117       0.06945486      -0.02560490
C        2.07903700       4.04506000       7.84606200       0.07666711      -0.00568718       0.05670286
O        2.76780100       4.40307700       8.70322100      -0.07336083      -0.01075189      -0.07313051
F        3.70384200       4.29750500       5.47625400       0.03088271       0.09280269       0.01226797
F        5.52165700       3.09700100       4.87743300      -0.09027185      -0.05253638       0.03899284
F        4.62998000       2.77927000       6.95466700       0.06580790      -0.01755801       0.04716242
F        3.52760200       2.65669800       3.85508700       0.04759261      -0.00872005       0.00216518
F        4.51670000       1.11053100       5.31463800       0.03348327      -0.00319120      -0.01694357
H        2.63223400       1.48762700       6.90177500      -0.00108891       0.05676179      -0.09964152
H        2.01522800       1.48364200       5.21167000       0.02489692      -0.02547233      -0.00288216
18
Properties=species:S:1:pos:R:3:forces:R:3 energy=-41773.603209587105 pbc="F F F"
Co       0.95492000       3.46775200       6.53873800       0.00285773      -0.02464300      -0.00862127
S        4.03823800       2.68283700       5.43211200       0.03964883       0.02502511      -0.06471164
C        2.39066700       2.10599800       6.03529900      -0.04567375      -0.00607829       0.00872350
C        1.00304400       4.04307100       4.81980400       0.00592053       0.01284096      -0.05453192
O        0.99202800       4.40577000       3.72251100      -0.00735968      -0.00575469       0.04464505
C       -0.32405500       4.64835000       6.98346300      -0.00285722       0.01938998      -0.00089696
O       -1.14395900       5.41277700       7.26574300       0.01410574      -0.01763268      -0.00156945
C       -0.05475300       2.01227900       6.90607200      -0.00258530      -0.02133311       0.00530352
O       -0.68567900       1.06854100       7.13484500       0.01775398       0.02393723      -0.00665402
C        2.07566600       4.06548700       7.83251000       0.02355681       0.00546627       0.03643691
O        2.75562900       4.44408900       8.68693500      -0.01230391      -0.01092308      -0.03109878
F        3.74446000       4.29939900       5.55193000      -0.01164386       0.05192626       0.00798065
F        5.52568600       3.08171800       4.88574900      -0.02332011      -0.00299004       0.00696496
F        4.65673100       2.70252800       6.95746900       0.01593035       0.00029568       0.05034616
F        3.51676100       2.72606000       3.86873000       0.00440960      -0.01753842       0.00180851
F        4.48973700       1.10456400       5.25306800      -0.00960734      -0.02466429       0.00586546
H        2.63719000       1.49677500       6.90663600      -0.00996128      -0.00240362      -0.01270099
H        2.02649000       1.48190400       5.21748500       0.00112887      -0.00492027       0.01271025
18
Properties=species:S:1:pos:R:3:forces:R:3 energy=-41773.60378755694 pbc="F F F"
Co       0.95543600       3.46703500       6.53610500       0.01664815      -0.02402043      -0.00568353
S        4.03629000       2.68399400       5.43443700       0.04717085       0.00546617      -0.04532830
C        2.38635800       2.10594800       6.03023000      -0.03769880      -0.00821339      -0.02565041
C        0.99915300       4.04868600       4.81846800      -0.01773701       0.00377165       0.00406430
O        0.97654600       4.42034100       3.72477500       0.01210995      -0.00226175      -0.00349284
C       -0.31855500       4.64857800       6.98965900       0.00077771       0.00188616      -0.00311499
O       -1.13580000       5.41232900       7.28041000      -0.00415578       0.00447799       0.00270609
C       -0.05326900       2.01110200       6.90120500      -0.00712201       0.00321121      -0.00455713
O       -0.68370900       1.06674400       7.12750200       0.00532753      -0.00062627       0.00156349
C        2.08183900       4.05808600       7.82835000       0.01113586       0.01459631       0.00823488
O        2.76909100       4.43373800       8.67778700      -0.00829124      -0.00193326      -0.00013154
F        3.73359300       4.30195400       5.52931500      -0.00339838       0.01522566      -0.00229564
F        5.52659200       3.08142400       4.89770200      -0.00567113       0.00826743       0.00269359
F        4.64056500       2.72744300       6.96643900       0.00600728      -0.00239365       0.02155834
F        3.53137500       2.70108300       3.86510700      -0.01112228       0.00594974       0.01019119
F        4.49622400       1.10455800       5.28245400      -0.00553070      -0.01378636       0.00567437
H        2.63147000       1.49445600       6.89915500       0.00154940      -0.01834570       0.01626958
H        2.02560200       1.48240200       5.21000100       0.00000062       0.00872854       0.01729843
18
Properties=species:S:1:pos:R:3:forces:R:3 energy=-41773.603972866484 pbc="F F F"
Co       0.95581500       3.46645900       6.53584100       0.00383624      -0.00897824      -0.00550699
S        4.03581400       2.68465200       5.43428400       0.01534383      -0.00218374      -0.02136844
C        2.38558600       2.10510700       6.03125100      -0.02612056      -0.00645830      -0.01524973
C        1.00001900       4.04642200       4.81752900       0.00328952       0.00154210       0.00391929
O        0.98426200       4.41589700       3.72302800      -0.00155855       0.00108634      -0.00498285
C       -0.31798800       4.64911100       6.98735900      -0.00006135       0.00051751       0.00580596
O       -1.13490400       5.41325600       7.27800700      -0.00441150       0.00524320      -0.00072351
C       -0.05277200       2.01100800       6.90221500       0.00279988       0.00251181       0.00187423
O       -0.68038000       1.06525800       7.13034100      -0.00219017      -0.00371566       0.00009338
C        2.08149200       4.05995800       7.82819500      -0.00466969       0.00487486       0.00028766
O        2.76554100       4.43744300       8.67930300       0.00154724       0.00021993       0.00278240
F        3.73440700       4.30291500       5.53642800       0.00117962       0.00458052      -0.00048743
F        5.52479100       3.08359600       4.89560200      -0.00675563      -0.00239113       0.00305051
F        4.64340400       2.72108600       6.96578100       0.00198273       0.00181160       0.00567052
F        3.52595600       2.70867800       3.86668700       0.00161290       0.00172701       0.00517028
F        4.49287000       1.10469800       5.27557400       0.00485589      -0.00015581      -0.00023361
H        2.63074700       1.49295600       6.90007000       0.00389635      -0.00888784       0.01058384
H        2.02413800       1.48140000       5.21160400       0.00542333       0.00865567       0.00931449
18
Properties=species:S:1:pos:R:3:forces:R:3 energy=-41773.60400579226 pbc="F F F"
Co       0.95585800       3.46636200       6.53631400       0.00124251      -0.00294443       0.00017201
S        4.03631600       2.68428700       5.43345500       0.00493019      -0.00067337      -0.00410312
C        2.38507400       2.10480400       6.03093800      -0.01068160      -0.00545706      -0.00766837
C        1.00008400       4.04743400       4.81820500       0.00158030      -0.00132633       0.00521286
O        0.98382700       4.41710600       3.72378100      -0.00019813       0.00163707      -0.00461009
C       -0.31797200       4.64929900       6.98840000      -0.00092483       0.00200366      -0.00314029
O       -1.13461500       5.41438200       7.27744900      -0.00121356       0.00079056       0.00218739
C       -0.05248400       2.01069500       6.90241400       0.00492680       0.00275499      -0.00039955
O       -0.67940900       1.06433200       7.12988700      -0.00292432      -0.00316806       0.00095882
C        2.08065500       4.06043400       7.82943900      -0.00243041      -0.00126874      -0.00265940
O        2.76327300       4.43792100       8.68166900       0.00314868       0.00177869       0.00262705
F        3.73484900       4.30292900       5.53357000      -0.00300475      -0.00135081       0.00191347
F        5.52515200       3.08292300       4.89495500      -0.00055834      -0.00160036       0.00015658
F        4.64337300       2.72279600       6.96544200      -0.00173935       0.00052831       0.00010254
F        3.52672300       2.70661300       3.86588400       0.00103723       0.00001198       0.00229687
F        4.49418200       1.10422300       5.27685000      -0.00045051       0.00289131      -0.00031619
H        2.63038100       1.49160800       6.89940000       0.00333503      -0.00024945       0.00316333
H        2.02353400       1.48175300       5.21104700       0.00392499       0.00564208       0.00410605
18
Properties=species:S:1:pos:R:3:forces:R:3 energy=-41773.604013683565 pbc="F F F"
Co       0.95594900       3.46606800       6.53611100      -0.00164031      -0.00020533      -0.00133775
S        4.03610600       2.68438300       5.43359100      -0.00150929      -0.00199641       0.00280739
C        2.38460200       2.10428500       6.03060200      -0.00159162      -0.00314091      -0.00160859
C        1.00026100       4.04699100       4.81791700       0.00082790      -0.00136577       0.00436846
O        0.98401800       4.41649900       3.72342200      -0.00021392       0.00131959      -0.00317336
C       -0.31764500       4.64960600       6.98805500      -0.00013941      -0.00085978       0.00053150
O       -1.13388500       5.41481200       7.27795200      -0.00023464       0.00040258      -0.00021890
C       -0.05228800       2.01051700       6.90273100       0.00222174       0.00307067       0.00002299
O       -0.67944900       1.06437500       7.13055200      -0.00163646      -0.00266618       0.00072135
C        2.08093900       4.06051400       7.82901800      -0.00137837      -0.00080234      -0.00170037
O        2.76384800       4.43846200       8.68082200       0.00155156       0.00111560       0.00198926
F        3.73384600       4.30289100       5.53465500       0.00107914      -0.00121593      -0.00061696
F        5.52492900       3.08365900       4.89584900       0.00030010       0.00043354      -0.00010855
F        4.64251100       2.72237400       6.96594400      -0.00028004       0.00002098      -0.00172943
F        3.52691400       2.70743400       3.86598500       0.00118554      -0.00028524       0.00038114
F        4.49448000       1.10453300       5.27636300      -0.00099964       0.00290766      -0.00024482
H        2.63023200       1.49092500       6.89901300       0.00101713       0.00137765      -0.00032185
H        2.02343200       1.48157100       5.21051800       0.00144054       0.00188956       0.00023850
