15
Properties=species:S:1:pos:R:3:forces:R:3 energy=-35719.609460134656 pbc="F F F"
Pd       0.00000000       0.00000000       0.00000000       0.00000000      -0.00000000       0.00000000
Cl      -0.64250000       1.43740000       1.67880000      -0.20217707       0.44129498       0.50272635
N        1.32220000      -0.81610000       1.21780000      -0.65354491       0.37941068      -0.63408726
C        2.09400000      -1.29810000       1.92580000       0.17459206      -0.07270186       0.19493782
C        3.05660000      -1.88200000       2.82730000      -3.04858594       1.79960502      -2.86963977
H        3.54910000      -2.59140000       2.36420000       2.72151043      -3.93504263      -2.58903392
H        2.59040000      -2.25960000       3.60250000      -2.60470793      -2.07714390       4.27829181
H        3.68320000      -1.19140000       3.12810000       3.46423617       3.86563106       1.65593943
Cl       0.64250000      -1.43740000      -1.67880000       0.20217707      -0.44129498      -0.50272635
N       -1.32220000       0.81610000      -1.21780000       0.65354491      -0.37941068       0.63408726
C       -2.09400000       1.29810000      -1.92580000      -0.17459206       0.07270186      -0.19493782
C       -3.05660000       1.88200000      -2.82730000       3.04858594      -1.79960502       2.86963977
H       -3.54910000       2.59140000      -2.36420000      -2.72151043       3.93504263       2.58903392
H       -2.59040000       2.25960000      -3.60250000       2.60470793       2.07714390      -4.27829181
H       -3.68320000       1.19140000      -3.12810000      -3.46423617      -3.86563106      -1.65593943
15
Properties=species:S:1:pos:R:3:forces:R:3 energy=-35721.036417870695 pbc="F F F"
Pd       0.00000000      -0.00000000      -0.00000000       0.00000000      -0.00000000       0.00000000
Cl      -0.65164300       1.45170400       1.68924200      -0.13231104       0.28546503       0.32143158
N        1.32265300      -0.81484400       1.22105200      -0.26569638       0.14397392      -0.26732044
C        2.09758000      -1.29749700       1.93395000       0.09718272      -0.03520149       0.10709365
C        3.06932500      -1.89041900       2.83817600      -1.18245018       0.69749324      -1.11072848
H        3.59102100      -2.64488100       2.34098800       1.02123084      -1.47390084      -0.96469454
H        2.57320100      -2.29304400       3.66319600      -0.95872289      -0.78567745       1.61159648
H        3.73706800      -1.15545500       3.15823300       1.30841727       1.43456846       0.63135927
Cl       0.65164300      -1.45170400      -1.68924200       0.13231104      -0.28546503      -0.32143158
N       -1.32265300       0.81484400      -1.22105200       0.26569638      -0.14397392       0.26732044
C       -2.09758000       1.29749700      -1.93395000      -0.09718272       0.03520149      -0.10709365
C       -3.06932500       1.89041900      -2.83817600       1.18245018      -0.69749324       1.11072848
H       -3.59102100       2.64488100      -2.34098800      -1.02123084       1.47390084       0.96469454
H       -2.57320100       2.29304400      -3.66319600       0.95872289       0.78567745      -1.61159648
H       -3.73706800       1.15545500      -3.15823300      -1.30841727      -1.43456846      -0.63135927
15
Properties=species:S:1:pos:R:3:forces:R:3 energy=-35721.35240628131 pbc="F F F"
Pd      -0.00000000      -0.00000000      -0.00000000      -0.00000000       0.00000000       0.00000000
Cl      -0.70236100       1.50544400       1.68888500       0.01593200      -0.04940308      -0.07168411
N        1.31450500      -0.78647600       1.25115300      -0.01809594       0.04791097       0.04726675
C        2.08669900      -1.25080200       1.98582200       0.12681463      -0.20321080      -0.09199012
C        3.07990500      -1.89895400       2.84329000      -0.12795266       0.15330975       0.01145344
H        3.59832500      -2.68255500       2.27742500      -0.03351618       0.03609999      -0.00245854
H        2.57873900      -2.34456400       3.71142400       0.03701689       0.01073148      -0.01837074
H        3.80683500      -1.15327200       3.18790100      -0.00769362      -0.04442522       0.00788377
Cl       0.70236100      -1.50544400      -1.68888500      -0.01593200       0.04940308       0.07168411
N       -1.31450500       0.78647600      -1.25115300       0.01809594      -0.04791097      -0.04726675
C       -2.08669900       1.25080200      -1.98582200      -0.12681463       0.20321080       0.09199012
C       -3.07990500       1.89895400      -2.84329000       0.12795266      -0.15330975      -0.01145344
H       -3.59832500       2.68255500      -2.27742500       0.03351618      -0.03609999       0.00245854
H       -2.57873900       2.34456400      -3.71142400      -0.03701689      -0.01073148       0.01837074
H       -3.80683500       1.15327200      -3.18790100       0.00769362       0.04442522      -0.00788377
15
Properties=species:S:1:pos:R:3:forces:R:3 energy=-35721.28997111665 pbc="F F F"
Pd       0.00000000       0.00000000      -0.00000000      -0.00000000      -0.00000000      -0.00000000
Cl      -0.57712000       1.42388600       1.79814700       0.03550539      -0.04345365      -0.01635546
N        1.35189600      -0.88857800       1.13412700       0.00461621      -0.09759379      -0.18500312
C        2.14495800      -1.40615500       1.80851000      -0.16141407       0.41265335       0.47827896
C        3.06187300      -1.88058400       2.84107800       0.18256161      -0.29460031      -0.17814039
H        3.67890900      -2.69317300       2.43136100       0.00080697       0.07386790       0.15845067
H        2.48909100      -2.25317700       3.70280600       0.02479058       0.03023587      -0.13600386
H        3.71019800      -1.05586600       3.17119800      -0.08497723      -0.07076617      -0.09851208
Cl       0.57712000      -1.42388600      -1.79814700      -0.03550539       0.04345365       0.01635546
N       -1.35189600       0.88857800      -1.13412700      -0.00461621       0.09759379       0.18500312
C       -2.14495800       1.40615500      -1.80851000       0.16141407      -0.41265335      -0.47827896
C       -3.06187300       1.88058400      -2.84107800      -0.18256161       0.29460031       0.17814039
H       -3.67890900       2.69317300      -2.43136100      -0.00080697      -0.07386790      -0.15845067
H       -2.48909100       2.25317700      -3.70280600      -0.02479058      -0.03023587       0.13600386
H       -3.71019800       1.05586600      -3.17119800       0.08497723       0.07076617       0.09851208
15
Properties=species:S:1:pos:R:3:forces:R:3 energy=-35721.36253980146 pbc="F F F"
Pd       0.00000000      -0.00000000      -0.00000000       0.00000000       0.00000000      -0.00000000
Cl      -0.67253900       1.48333800       1.71070300       0.00336635      -0.00927176      -0.01320385
N        1.31960900      -0.81298600       1.22427500       0.01337925      -0.01267873       0.01369164
C        2.09688600      -1.29308400       1.94293100       0.01518617       0.00001394       0.00652500
C        3.07550200      -1.89472000       2.84280800      -0.03982480       0.02116311      -0.03237364
H        3.62113000      -2.68528700       2.31551300       0.00318164      -0.00475716       0.00480843
H        2.56190000      -2.32275700       3.71122200       0.00606729      -0.00357301       0.00212677
H        3.78214800      -1.12904600       3.18263200       0.00186174      -0.00096051       0.00280291
Cl       0.67253900      -1.48333800      -1.71070300      -0.00336635       0.00927176       0.01320385
N       -1.31960900       0.81298600      -1.22427500      -0.01337925       0.01267873      -0.01369164
C       -2.09688600       1.29308400      -1.94293100      -0.01518617      -0.00001394      -0.00652500
C       -3.07550200       1.89472000      -2.84280800       0.03982480      -0.02116311       0.03237364
H       -3.62113000       2.68528700      -2.31551300      -0.00318164       0.00475716      -0.00480843
H       -2.56190000       2.32275700      -3.71122200      -0.00606729       0.00357301      -0.00212677
H       -3.78214800       1.12904600      -3.18263200      -0.00186174       0.00096051      -0.00280291
15
Properties=species:S:1:pos:R:3:forces:R:3 energy=-35721.362646742215 pbc="F F F"
Pd       0.00000000       0.00000000      -0.00000000       0.00000000      -0.00000000      -0.00000000
Cl      -0.67252500       1.48313400       1.70912100       0.00022790      -0.00137960      -0.00309011
N        1.32133900      -0.81123200       1.22337500       0.00243170      -0.00050034      -0.00133667
C        2.09957200      -1.29069700       1.94110400      -0.00081478      -0.00594881       0.00784320
C        3.07460500      -1.89421000       2.84180100      -0.00660532       0.00928333      -0.01183422
H        3.62042700      -2.68562000       2.31588100       0.00264484      -0.00246774       0.00128401
H        2.55952100      -2.32238000       3.70926100      -0.00020312      -0.00108768       0.00151417
H        3.78200300      -1.13020000       3.18385700       0.00331235      -0.00096658       0.00272388
Cl       0.67252500      -1.48313400      -1.70912100      -0.00022790       0.00137960       0.00309011
N       -1.32133900       0.81123200      -1.22337500      -0.00243170       0.00050034       0.00133667
C       -2.09957200       1.29069700      -1.94110400       0.00081478       0.00594881      -0.00784320
C       -3.07460500       1.89421000      -2.84180100       0.00660532      -0.00928333       0.01183422
H       -3.62042700       2.68562000      -2.31588100      -0.00264484       0.00246774      -0.00128401
H       -2.55952100       2.32238000      -3.70926100       0.00020312       0.00108768      -0.00151417
H       -3.78200300       1.13020000      -3.18385700      -0.00331235       0.00096658      -0.00272388
15
Properties=species:S:1:pos:R:3:forces:R:3 energy=-35721.36266089213 pbc="F F F"
Pd       0.00000000      -0.00000000      -0.00000000       0.00000000      -0.00000000      -0.00000000
Cl      -0.67311800       1.48370700       1.70771400      -0.00083700       0.00155135       0.00087608
N        1.31979600      -0.81217900       1.22446900      -0.00320781       0.00028971      -0.00262844
C        2.09753800      -1.29209300       1.94236800       0.00287547       0.00217490      -0.00037152
C        3.07444200      -1.89406400       2.84139200       0.00111411      -0.00285840       0.00263440
H        3.62082100      -2.68500200       2.31518400       0.00019576      -0.00040001      -0.00037615
H        2.56128600      -2.32312700       3.70961600       0.00012259      -0.00069744       0.00123912
H        3.78163900      -1.12957700       3.18301400      -0.00016470       0.00064586      -0.00026503
Cl       0.67311800      -1.48370700      -1.70771400       0.00083700      -0.00155135      -0.00087608
N       -1.31979600       0.81217900      -1.22446900       0.00320781      -0.00028971       0.00262844
C       -2.09753800       1.29209300      -1.94236800      -0.00287547      -0.00217490       0.00037152
C       -3.07444200       1.89406400      -2.84139200      -0.00111411       0.00285840      -0.00263440
H       -3.62082100       2.68500200      -2.31518400      -0.00019576       0.00040001       0.00037615
H       -2.56128600       2.32312700      -3.70961600      -0.00012259       0.00069744      -0.00123912
H       -3.78163900       1.12957700      -3.18301400       0.00016470      -0.00064586       0.00026503
